
This summary information was generated by ElastoDyn on 14-Dec-2018 at 21:48:58.


Turbine features:

            Upwind, three-bladed rotor with rigid hub.
            The model has 15 of 24 DOFs active (enabled) at start-up.
 Disabled   Platform horizontal surge translation DOF 
 Disabled   Platform horizontal sway translation DOF 
 Disabled   Platform vertical heave translation DOF 
 Disabled   Platform roll tilt rotation DOF 
 Disabled   Platform pitch tilt rotation DOF 
 Disabled   Platform yaw rotation DOF 
 Enabled    1st tower fore-aft bending mode DOF 
 Enabled    1st tower side-to-side bending mode DOF 
 Enabled    2nd tower fore-aft bending mode DOF 
 Enabled    2nd tower side-to-side bending mode DOF 
 Disabled   Nacelle yaw DOF 
 Disabled   Rotor-furl DOF 
 Enabled    Variable speed generator DOF 
 Enabled    Drivetrain rotational-flexibility DOF 
 Disabled   Tail-furl DOF 
 Enabled    1st flapwise bending-mode DOF of blade 1 
 Enabled    1st edgewise bending-mode DOF of blade 1 
 Enabled    2nd flapwise bending-mode DOF of blade 1 
 Enabled    1st flapwise bending-mode DOF of blade 2 
 Enabled    1st edgewise bending-mode DOF of blade 2 
 Enabled    2nd flapwise bending-mode DOF of blade 2 
 Enabled    1st flapwise bending-mode DOF of blade 3 
 Enabled    1st edgewise bending-mode DOF of blade 3 
 Enabled    2nd flapwise bending-mode DOF of blade 3 


Time steps:

    Structural            (s)        0.00250000


Some calculated parameters:

    Hub-Height            (m)            32.633
    Flexible Tower Length (m)            31.000
    Flexible Blade Length (m)            13.000


Rotor mass properties:

    Rotor Mass            (kg)         2955.270
    Rotor Inertia         (kg-m^2)    68594.391
                                        Blade 1      Blade 2      Blade 3
                                        -------      -------      -------
    Mass                  (kg)          596.757      596.757      596.757
    Second Mass Moment    (kg-m^2)    19938.385    19938.385    19938.385
    First Mass Moment     (kg-m)       2754.190     2754.190     2754.190
    Center of Mass        (m)             4.615        4.615        4.615


Additional mass properties:

    Tower-top Mass        (kg)         9914.770
    Tower Mass            (kg)        11983.714
    Platform Mass         (kg)            0.000
    Mass Incl. Platform   (kg)        21898.484


Interpolated tower properties:

Node  TwFract   HNodes  DHNodes  TMassDen    FAStiff    SSStiff
 (-)      (-)      (m)      (m)    (kg/m)     (Nm^2)     (Nm^2)
   1    0.050    1.550    3.100   644.653  9.925E+09  9.925E+09
   2    0.150    4.650    3.100   487.981  6.747E+09  6.747E+09
   3    0.250    7.750    3.100   458.692  5.595E+09  5.595E+09
   4    0.350   10.850    3.100   429.945  4.599E+09  4.599E+09
   5    0.450   13.950    3.100   406.463  3.894E+09  3.894E+09
   6    0.550   17.050    3.100   383.225  3.259E+09  3.259E+09
   7    0.650   20.150    3.100   317.751  2.395E+09  2.395E+09
   8    0.750   23.250    3.100   258.995  1.792E+09  1.792E+09
   9    0.850   26.350    3.100   245.934  1.534E+09  1.534E+09
  10    0.950   29.450    3.100   232.076  1.288E+09  1.288E+09


Interpolated blade 1 properties:

Node  BlFract   RNodes  DRNodes PitchAxis  StrcTwst  BMassDen    FlpStff    EdgStff
 (-)      (-)      (m)      (m)       (-)     (deg)    (kg/m)     (Nm^2)     (Nm^2)
   1    0.025    0.825    0.650     0.251    14.773    98.410  5.017E+07  5.787E+07
   2    0.075    1.475    0.650     0.289    13.810    87.787  4.358E+07  5.770E+07
   3    0.125    2.125    0.650     0.315    12.829    79.285  2.928E+07  4.553E+07
   4    0.175    2.775    0.650     0.291    11.773    73.654  2.241E+07  3.893E+07
   5    0.225    3.425    0.650     0.267    10.724    68.167  1.693E+07  3.239E+07
   6    0.275    4.075    0.650     0.243     9.671    59.933  1.212E+07  2.493E+07
   7    0.325    4.725    0.650     0.218     8.615    54.189  9.065E+06  1.971E+07
   8    0.375    5.375    0.650     0.194     7.563    48.697  6.528E+06  1.551E+07
   9    0.425    6.025    0.650     0.169     6.512    43.927  4.663E+06  1.249E+07
  10    0.475    6.675    0.650     0.152     5.671    39.273  3.271E+06  1.017E+07
  11    0.525    7.325    0.650     0.139     4.929    36.797  2.424E+06  8.544E+06
  12    0.575    7.975    0.650     0.125     4.188    34.396  1.789E+06  7.145E+06
  13    0.625    8.625    0.650     0.111     3.452    32.036  1.258E+06  5.861E+06
  14    0.675    9.275    0.650     0.098     2.715    29.806  9.438E+05  4.875E+06
  15    0.725    9.925    0.650     0.085     1.975    27.586  6.441E+05  3.910E+06
  16    0.775   10.575    0.650     0.083     1.579    25.452  4.469E+05  3.131E+06
  17    0.825   11.225    0.650     0.082     1.228    23.392  3.137E+05  2.494E+06
  18    0.875   11.875    0.650     0.081     0.874    21.348  2.002E+05  1.921E+06
  19    0.925   12.525    0.650     0.081     0.527    19.276  1.217E+05  1.465E+06
  20    0.975   13.175    0.650     0.080     0.179    14.675  1.114E+05  1.061E+06


Interpolated blade 2 properties:

Node  BlFract   RNodes  DRNodes PitchAxis  StrcTwst  BMassDen    FlpStff    EdgStff
 (-)      (-)      (m)      (m)       (-)     (deg)    (kg/m)     (Nm^2)     (Nm^2)
   1    0.025    0.825    0.650     0.251    14.773    98.410  5.017E+07  5.787E+07
   2    0.075    1.475    0.650     0.289    13.810    87.787  4.358E+07  5.770E+07
   3    0.125    2.125    0.650     0.315    12.829    79.285  2.928E+07  4.553E+07
   4    0.175    2.775    0.650     0.291    11.773    73.654  2.241E+07  3.893E+07
   5    0.225    3.425    0.650     0.267    10.724    68.167  1.693E+07  3.239E+07
   6    0.275    4.075    0.650     0.243     9.671    59.933  1.212E+07  2.493E+07
   7    0.325    4.725    0.650     0.218     8.615    54.189  9.065E+06  1.971E+07
   8    0.375    5.375    0.650     0.194     7.563    48.697  6.528E+06  1.551E+07
   9    0.425    6.025    0.650     0.169     6.512    43.927  4.663E+06  1.249E+07
  10    0.475    6.675    0.650     0.152     5.671    39.273  3.271E+06  1.017E+07
  11    0.525    7.325    0.650     0.139     4.929    36.797  2.424E+06  8.544E+06
  12    0.575    7.975    0.650     0.125     4.188    34.396  1.789E+06  7.145E+06
  13    0.625    8.625    0.650     0.111     3.452    32.036  1.258E+06  5.861E+06
  14    0.675    9.275    0.650     0.098     2.715    29.806  9.438E+05  4.875E+06
  15    0.725    9.925    0.650     0.085     1.975    27.586  6.441E+05  3.910E+06
  16    0.775   10.575    0.650     0.083     1.579    25.452  4.469E+05  3.131E+06
  17    0.825   11.225    0.650     0.082     1.228    23.392  3.137E+05  2.494E+06
  18    0.875   11.875    0.650     0.081     0.874    21.348  2.002E+05  1.921E+06
  19    0.925   12.525    0.650     0.081     0.527    19.276  1.217E+05  1.465E+06
  20    0.975   13.175    0.650     0.080     0.179    14.675  1.114E+05  1.061E+06


Interpolated blade 3 properties:

Node  BlFract   RNodes  DRNodes PitchAxis  StrcTwst  BMassDen    FlpStff    EdgStff
 (-)      (-)      (m)      (m)       (-)     (deg)    (kg/m)     (Nm^2)     (Nm^2)
   1    0.025    0.825    0.650     0.251    14.773    98.410  5.017E+07  5.787E+07
   2    0.075    1.475    0.650     0.289    13.810    87.787  4.358E+07  5.770E+07
   3    0.125    2.125    0.650     0.315    12.829    79.285  2.928E+07  4.553E+07
   4    0.175    2.775    0.650     0.291    11.773    73.654  2.241E+07  3.893E+07
   5    0.225    3.425    0.650     0.267    10.724    68.167  1.693E+07  3.239E+07
   6    0.275    4.075    0.650     0.243     9.671    59.933  1.212E+07  2.493E+07
   7    0.325    4.725    0.650     0.218     8.615    54.189  9.065E+06  1.971E+07
   8    0.375    5.375    0.650     0.194     7.563    48.697  6.528E+06  1.551E+07
   9    0.425    6.025    0.650     0.169     6.512    43.927  4.663E+06  1.249E+07
  10    0.475    6.675    0.650     0.152     5.671    39.273  3.271E+06  1.017E+07
  11    0.525    7.325    0.650     0.139     4.929    36.797  2.424E+06  8.544E+06
  12    0.575    7.975    0.650     0.125     4.188    34.396  1.789E+06  7.145E+06
  13    0.625    8.625    0.650     0.111     3.452    32.036  1.258E+06  5.861E+06
  14    0.675    9.275    0.650     0.098     2.715    29.806  9.438E+05  4.875E+06
  15    0.725    9.925    0.650     0.085     1.975    27.586  6.441E+05  3.910E+06
  16    0.775   10.575    0.650     0.083     1.579    25.452  4.469E+05  3.131E+06
  17    0.825   11.225    0.650     0.082     1.228    23.392  3.137E+05  2.494E+06
  18    0.875   11.875    0.650     0.081     0.874    21.348  2.002E+05  1.921E+06
  19    0.925   12.525    0.650     0.081     0.527    19.276  1.217E+05  1.465E+06
  20    0.975   13.175    0.650     0.080     0.179    14.675  1.114E+05  1.061E+06


Requested Outputs:


  Col  Parameter  Units
  ---  ---------  -----
   0   Time       (s)       
   1   RotSpeed   (rpm)     
   2   BldPitch1  (deg)     
